*Heading
** Job name: plate334 Model name: Model-1
** Generated by: Abaqus/CAE 2022
*Preprint, echo=NO, model=NO, history=NO, contact=NO
**
** PARTS
**
*Part, name=Part-1
*Node
      1,         300.,         300.,           0.
      2,         295.,         300.,           0.
      3,         290.,         300.,           0.
      4,         285.,         300.,           0.
      5,         280.,         300.,           0.
      6,         275.,         300.,           0.
      7,         270.,         300.,           0.
      8,         265.,         300.,           0.
      9,         260.,         300.,           0.
     10,         255.,         300.,           0.
     11,         250.,         300.,           0.
     12,         245.,         300.,           0.
     13,         240.,         300.,           0.
     14,         235.,         300.,           0.
     15,         230.,         300.,           0.
     16,         225.,         300.,           0.
     17,         220.,         300.,           0.
     18,         215.,         300.,           0.
     19,         210.,         300.,           0.
     20,         205.,         300.,           0.
** ... 3701 like lines cut
*Element, type=S4R
   1,    1,    2,   63,   62
   2,    2,    3,   64,   63
   3,    3,    4,   65,   64
   4,    4,    5,   66,   65
   5,    5,    6,   67,   66
   6,    6,    7,   68,   67
   7,    7,    8,   69,   68
   8,    8,    9,   70,   69
   9,    9,   10,   71,   70
  10,   10,   11,   72,   71
  11,   11,   12,   73,   72
  12,   12,   13,   74,   73
  13,   13,   14,   75,   74
  14,   14,   15,   76,   75
  15,   15,   16,   77,   76
  16,   16,   17,   78,   77
  17,   17,   18,   79,   78
  18,   18,   19,   80,   79
  19,   19,   20,   81,   80
  20,   20,   21,   82,   81
** ... 3580 like lines cut
*Nset, nset=Set-1, generate
    1,  3721,     1
*Elset, elset=Set-1, generate
    1,  3600,     1
** Section: Section-1
*Shell Section, elset=Set-1, material=Material-1
4., 5
*End Part
**  
**
** ASSEMBLY
**
*Assembly, name=Assembly
**  
*Instance, name=Part-1-1, part=Part-1
*End Instance
**  
*End Assembly
** 
** MATERIALS
** 
*Material, name=Material-1
*Density
 281.875,
*Elastic
283125, 0.13
** ----------------------------------------------------------------
** 
** Output Global Stiffness Matrix
*Step, name=Global_Stiffness_And_Mass_Matrix
*MATRIX GENERATE, STIFFNESS, MASS
*MATRIX OUTPUT, STIFFNESS, MASS, FORMAT=MATRIX INPUT
*End Step
** STEP: Step-1
** 
*Step, name=Step-1, nlgeom=NO, perturbation
*Frequency, eigensolver=Lanczos, sim, acoustic coupling=on, normalization=mass
20, , , , , 
** 
** OUTPUT REQUESTS
** 
*Restart, write, frequency=0
** 
** FIELD OUTPUT: F-Output-1
** 
*Output, field, variable=PRESELECT
** 
** HISTORY OUTPUT: H-Output-1
** 
*Output, history, variable=PRESELECT
*End Step
