*Heading
** Job name: Job-1 Model name: Model-1
** Generated by: Abaqus/CAE 2022
*Preprint, echo=NO, model=NO, history=NO, contact=NO
**
** PARTS
**
*Part, name=Part-1
*Node
      1,         300.,         300.,           0.
      2,         297.,         300.,           0.
      3,         294.,         300.,           0.
      4,         291.,         300.,           0.
      5,         288.,         300.,           0.
      6,         285.,         300.,           0.
      7,         282.,         300.,           0.
      8,         279.,         300.,           0.
      9,         276.,         300.,           0.
     10,         273.,         300.,           0.
     11,         270.,         300.,           0.
     12,         267.,         300.,           0.
     13,         264.,         300.,           0.
     14,         261.,         300.,           0.
     15,         258.,         300.,           0.
     16,         255.,         300.,           0.
     17,         252.,         300.,           0.
     18,         249.,         300.,           0.
     19,         246.,         300.,           0.
     20,         243.,         300.,           0.
** ... 10181 like lines cut
*Element, type=S4R
    1,     1,     2,   103,   102
    2,     2,     3,   104,   103
    3,     3,     4,   105,   104
    4,     4,     5,   106,   105
    5,     5,     6,   107,   106
    6,     6,     7,   108,   107
    7,     7,     8,   109,   108
    8,     8,     9,   110,   109
    9,     9,    10,   111,   110
   10,    10,    11,   112,   111
   11,    11,    12,   113,   112
   12,    12,    13,   114,   113
   13,    13,    14,   115,   114
   14,    14,    15,   116,   115
   15,    15,    16,   117,   116
   16,    16,    17,   118,   117
   17,    17,    18,   119,   118
   18,    18,    19,   120,   119
   19,    19,    20,   121,   120
   20,    20,    21,   122,   121
** ... 9980 like lines cut
*Nset, nset=Set-1, generate
     1,  10201,      1
*Elset, elset=Set-1, generate
     1,  10000,      1
** Section: Section-1
*Shell Section, elset=Set-1, material=Material-1
4., 5
*End Part
**  
**
** ASSEMBLY
**
*Assembly, name=Assembly
**  
*Instance, name=Part-1-1, part=Part-1
*End Instance
**  
*End Assembly
** 
** MATERIALS
** 
*Material, name=Material-1
*Density
 281.875,
*Elastic
 4.53e+08, 0.13
** ----------------------------------------------------------------
** 
** Output Global Stiffness Matrix
*Step, name=Global_Stiffness_And_Mass_Matrix
*MATRIX GENERATE, STIFFNESS, MASS
*MATRIX OUTPUT, STIFFNESS, MASS, FORMAT=MATRIX INPUT
*End Step
** STEP: Step-1
** 
*Step, name=Step-1, nlgeom=NO, perturbation
*Frequency, eigensolver=Lanczos, sim, acoustic coupling=on, normalization=mass
20, , , , , 
** 
** OUTPUT REQUESTS
** 
*Restart, write, frequency=0
** 
** FIELD OUTPUT: F-Output-1
** 
*Output, field, variable=PRESELECT
** 
** HISTORY OUTPUT: H-Output-1
** 
*Output, history, variable=PRESELECT
*End Step
