*Heading
** Job name: Job-1 Model name: Model-1
** Generated by: Abaqus/CAE 2022
*Preprint, echo=NO, model=NO, history=NO, contact=NO
**
** PARTS
**
*Part, name=Part-1
*Node
      1,         300.,          60.,           0.
      2,         285.,          60.,           0.
      3,         270.,          60.,           0.
      4,         255.,          60.,           0.
      5,         240.,          60.,           0.
      6,         225.,          60.,           0.
      7,         210.,          60.,           0.
      8,         195.,          60.,           0.
      9,         180.,          60.,           0.
     10,         165.,          60.,           0.
     11,         150.,          60.,           0.
     12,         135.,          60.,           0.
     13,         120.,          60.,           0.
     14,         105.,          60.,           0.
     15,          90.,          60.,           0.
     16,          75.,          60.,           0.
     17,          60.,          60.,           0.
     18,          45.,          60.,           0.
     19,          30.,          60.,           0.
     20,          15.,          60.,           0.
** ... 43 like lines cut
*Element, type=S4R
 1,  1,  2, 23, 22
 2,  2,  3, 24, 23
 3,  3,  4, 25, 24
 4,  4,  5, 26, 25
 5,  5,  6, 27, 26
 6,  6,  7, 28, 27
 7,  7,  8, 29, 28
 8,  8,  9, 30, 29
 9,  9, 10, 31, 30
10, 10, 11, 32, 31
11, 11, 12, 33, 32
12, 12, 13, 34, 33
13, 13, 14, 35, 34
14, 14, 15, 36, 35
15, 15, 16, 37, 36
16, 16, 17, 38, 37
17, 17, 18, 39, 38
18, 18, 19, 40, 39
19, 19, 20, 41, 40
20, 20, 21, 42, 41
** ... 20 like lines cut
*Nset, nset=Set-1, generate
  1,  63,   1
*Elset, elset=Set-1, generate
  1,  40,   1
** Section: Section-1
*Shell Section, elset=Set-1, material=Material-1
2., 5
*End Part
**  
**
** ASSEMBLY
**
*Assembly, name=Assembly
**  
*Instance, name=Part-1-1, part=Part-1
*End Instance
**  
*End Assembly
** 
** MATERIALS
** 
*Material, name=Material-1
*Density
 256.25,
*Elastic
 1.19e+10, 0.13
** ----------------------------------------------------------------
** 
** Output Global Stiffness Matrix
*Step, name=Global_Stiffness_And_Mass_Matrix
*MATRIX GENERATE, STIFFNESS, MASS
*MATRIX OUTPUT, STIFFNESS, MASS, FORMAT=MATRIX INPUT
*End Step
** STEP: Step-1
** 
*Step, name=Step-1, nlgeom=NO, perturbation
*Frequency, eigensolver=Lanczos, sim, acoustic coupling=on, normalization=mass
20, , , , , 
** 
** OUTPUT REQUESTS
** 
*Restart, write, frequency=0
** 
** FIELD OUTPUT: F-Output-1
** 
*Output, field, variable=PRESELECT
** 
** HISTORY OUTPUT: H-Output-1
** 
*Output, history, variable=PRESELECT
*End Step
