*Heading
** Job name: Job-1 Model name: Model-1
** Generated by: Abaqus/CAE 2022
*Preprint, echo=NO, model=NO, history=NO, contact=NO
**
** PARTS
**
*Part, name=Part-1
*Node
      1,          30.,          60.,           0.
      2,          28.,          60.,           0.
      3,          26.,          60.,           0.
      4,          24.,          60.,           0.
      5,          22.,          60.,           0.
      6,          20.,          60.,           0.
      7,          18.,          60.,           0.
      8,          16.,          60.,           0.
      9,          14.,          60.,           0.
     10,          12.,          60.,           0.
     11,          10.,          60.,           0.
     12,           8.,          60.,           0.
     13,           6.,          60.,           0.
     14,           4.,          60.,           0.
     15,           2.,          60.,           0.
     16,           0.,          60.,           0.
     17,          30.,          58.,           0.
     18,          28.,          58.,           0.
     19,          26.,          58.,           0.
     20,          24.,          58.,           0.
** ... 476 like lines cut
*Element, type=S4R
  1,   1,   2,  18,  17
  2,   2,   3,  19,  18
  3,   3,   4,  20,  19
  4,   4,   5,  21,  20
  5,   5,   6,  22,  21
  6,   6,   7,  23,  22
  7,   7,   8,  24,  23
  8,   8,   9,  25,  24
  9,   9,  10,  26,  25
 10,  10,  11,  27,  26
 11,  11,  12,  28,  27
 12,  12,  13,  29,  28
 13,  13,  14,  30,  29
 14,  14,  15,  31,  30
 15,  15,  16,  32,  31
 16,  17,  18,  34,  33
 17,  18,  19,  35,  34
 18,  19,  20,  36,  35
 19,  20,  21,  37,  36
 20,  21,  22,  38,  37
** ... 430 like lines cut
*Nset, nset=Set-1, generate
   1,  496,    1
*Elset, elset=Set-1, generate
   1,  450,    1
** Section: Section-1
*Shell Section, elset=Set-1, material=Material-1
2., 5
*End Part
**  
**
** ASSEMBLY
**
*Assembly, name=Assembly
**  
*Instance, name=Part-1-1, part=Part-1
*End Instance
**  
*End Assembly
** 
** MATERIALS
** 
*Material, name=Material-1
*Density
451.,
*Elastic
2.385e10, 0.13
** ----------------------------------------------------------------
** 
** Output Global Stiffness Matrix
*Step, name=Global_Stiffness_And_Mass_Matrix
*MATRIX GENERATE, STIFFNESS, MASS
*MATRIX OUTPUT, STIFFNESS, MASS, FORMAT=MATRIX INPUT
*End Step
** STEP: Step-1
** 
*Step, name=Step-1, nlgeom=NO, perturbation
*Frequency, eigensolver=Lanczos, sim, acoustic coupling=on, normalization=mass
20, , , , , 
** 
** OUTPUT REQUESTS
** 
*Restart, write, frequency=0
** 
** FIELD OUTPUT: F-Output-1
** 
*Output, field, variable=PRESELECT
** 
** HISTORY OUTPUT: H-Output-1
** 
*Output, history, variable=PRESELECT
*End Step
